* ============================================================
* GF180MCU 3.3V flat BSIM4 model, PTM-style single .model card
* Distilled from GlobalFoundries gf180mcu_fd_pr open PDK (Apache-2.0)
*   Corner  : typical (t)      Statistical/MM : OFF (nominal)
*   Frozen bin: L=0.28um  W=1.0um  (device bin 4)
*   UNITS: SI/meters -- use .option scale=1u to enter W/L in microns
* Single-geometry snapshot: does NOT scale across L/W like the real
* binned PDK. For quick/behavioral/teaching sims only; use the real
* gf180mcu_fd_pr subckt for sign-off.
* ============================================================

.model gf180_nmos_3p3 NMOS  level = 54
+ version = 4.5    binunit = 2    paramchk = 1    mobmod = 0
+ capmod = 2    igcmod = 0    igbmod = 0    geomod = 0
+ diomod = 1    rdsmod = 0    rbodymod = 0    rgatemod = 0
+ permod = 1    acnqsmod = 0    trnqsmod = 0    tnom = 25
+ toxe = 8e-009    toxp = 8e-009    toxm = 8e-009    epsrox = 3.9
+ wint = 1e-008    lint = 0    ll = 0    wl = 0
+ lln = 1    wln = 1    lw = 0    ww = 0
+ lwn = 1    wwn = 1    lwl = 0    wwl = 0
+ xl = 0    xw = 0    dlc = 0    dwc = 0
+ xpart = 0    toxref = 8e-009    dlcig = 1.5e-007    vth0 = 0.72356597
+ lvth0 = -4.1979273e-008    wvth0 = -2.1596758e-008    pvth0 = 2.0029964e-015    k1 = 0.95938091
+ lk1 = -9.9985454e-008    k2 = 0.041255727    lk2 = -3.7879164e-008    wk2 = -1.2782618e-008
+ pk2 = 3.5791331e-015    k3 = 0    k3b = 0    w0 = 5e-007
+ dvt0 = 0    dvt1 = 0.53    dvt2 = 0    dvt0w = 0
+ dvt1w = 0    dvt2w = 0    dsub = 0.5    minv = -0.25
+ voffl = 0    dvtp0 = 0    dvtp1 = 0    lpe0 = 1.1e-007
+ lpeb = 0    vbm = -3    xj = 1e-007    ngate = 6e+019
+ ndep = 3e+017    nsd = 1e+020    phin = 0.07    cdsc = 0
+ cdscb = 0    cdscd = 0    cit = 0    voff = -0.079311948
+ lvoff = -9.2114546e-009    wvoff = -1.7231065e-008    pvoff = 4.8246982e-015    nfactor = 1
+ eta0 = 0.75    etab = -0.32    u0 = 0.033011551    lu0 = 4.0251818e-009
+ wu0 = 1.2335751e-010    pu0 = -3.5013818e-016    ua = -6.3005701e-010    lua = 3.9938436e-016
+ wua = 1.8551439e-017    pua = 3.8566691e-024    ub = 2.2836418e-018    lub = -9.0230909e-026
+ wub = 1.1549411e-025    pub = -2.4352626e-031    uc = 1.5877203e-010    luc = -3.4349127e-017
+ wuc = -1.9125195e-020    puc = -7.5187026e-024    eu = 1.67    vsat = 71618.182
+ lvsat = 0.0042909091    wvsat = 0.0097832727    pvsat = -2.0596364e-009    a0 = 0.10680558
+ la0 = -1.6983636e-009    wa0 = -3.7514805e-009    pa0 = 1.0504145e-015    ags = 0.35500309
+ lags = -1.1780546e-008    wags = 3.3067462e-008    pags = -1.3815011e-014    a1 = 0
+ a2 = 1    b0 = 0    b1 = 0    keta = -0.12490989
+ lketa = 3.0254945e-008    wketa = -3.3798633e-009    pketa = 1.6899316e-015    dwg = 0
+ dwb = 0    pclm = 0.45921829    lpclm = -8.0088e-008    wpclm = -1.9828414e-008
+ ppclm = 2.4308858e-014    pdiblc1 = 0.39    pdiblc2 = 0.003171    pdiblcb = 0.2
+ drout = 0.56    pvag = 0    delta = 0.0036363636    ldelta = 3.1818182e-009
+ pscbe1 = 6.6469e+008    pscbe2 = 1.638e-005    fprout = 0    pdits = 0
+ pditsd = 0    pditsl = 0    rsh = 7    rdsw = 530
+ rdswmin = 50    rdwmin = 0    rswmin = 0    prwg = 0
+ prwb = 0    wr = 1    alpha0 = 2.6500109e-006    lalpha0 = -2.8170545e-013
+ walpha0 = 4.9740218e-014    palpha0 = -2.4870109e-020    alpha1 = 0    beta0 = 20.982852
+ lbeta0 = -8.9454546e-008    wbeta0 = -3.786053e-007    pbeta0 = 1.0555636e-013    agidl = 1.3268e-010
+ bgidl = 1.8961e+009    cgidl = 0.5    egidl = 0.8    cgso = 1e-010
+ cgdo = 1e-010    cgbo = 1e-013    cgdl = 1e-010    cgsl = 1e-010
+ clc = 1e-007    cle = 0.6    cf = 0    ckappas = 0.6
+ ckappad = 0.6    vfbcv = -1    acde = 0.6    moin = 15
+ noff = 2    voffcv = 0.005    tvoff = 0.001    ltvoff = 0
+ wtvoff = 0    ptvoff = 0    kt1 = -0.37773746    lkt1 = 1.6718727e-008
+ wkt1 = -7.0851491e-009    pkt1 = 3.5425745e-015    kt1l = 0    kt2 = -0.014603854
+ lkt2 = -3.3230727e-009    wkt2 = -3.8010589e-009    pkt2 = 1.9005294e-015    ute = -1.4342857
+ wute = 4.0457143e-008    ua1 = 1.675e-009    ub1 = -3.65896e-018    lub1 = 2.4878e-025
+ wub1 = 7.7854254e-026    pub1 = -3.8927127e-032    uc1 = -5.6e-011    prt = 0
+ at = 23000    fnoimod = 1    tnoimod = 0    em = 4.1e+007
+ ef = 0.95    noia = 3.2e+41    noib = 1.2e+20    noic = 600000000.0
+ ntnoi = 1    jss = 2.2959e-007    jsws = 2.1207e-013    jswgs = 0
+ njs = 1.01    ijthsfwd = 0.1    ijthsrev = 0.1    pbs = 0.70172
+ cjs = 0.00096797    mjs = 0.32071    pbsws = 0.8062    cjsws = 1.5663e-010
+ mjsws = 0.1    pbswgs = 0.74743    cjswgs = 5.9903e-010    mjswgs = 0.32059
+ tpb = 0.0018129    tcj = 0.0009438    tpbsw = 5e-005    tcjsw = 0.00060474
+ tpbswg = 0.0016872    tcjswg = 0.001    xtis = 3    dmcg = 1.5e-007
+ saref = 4.4e-007    sbref = 4.4e-007    kvth0 = 0    ku0 = 0
+ kvsat = 0

.model gf180_pmos_3p3 PMOS  level = 54
+ version = 4.5    binunit = 2    paramchk = 1    mobmod = 0
+ capmod = 2    igcmod = 0    igbmod = 0    geomod = 0
+ diomod = 1    rdsmod = 0    rbodymod = 0    rgatemod = 0
+ permod = 1    acnqsmod = 0    trnqsmod = 0    tnom = 25
+ toxe = 7.9e-009    toxp = 7.9e-009    toxm = 7.9e-009    epsrox = 3.9
+ wint = -1e-008    lint = 0    ll = 0    wl = 0
+ lln = 1    wln = 1    lw = 0    ww = 0
+ lwn = 1    wwn = 1    lwl = 0    wwl = 0
+ xl = 0    xw = 0    dlc = -8e-009    dwc = 0
+ xpart = 0    toxref = 7.9e-009    dlcig = 1.5e-007    vth0 = -0.7710094
+ lvth0 = -2.1407273e-009    wvth0 = 1.4897689e-008    pvth0 = -5.2482182e-016    k1 = 0.99870273
+ lk1 = -3.5426364e-008    k2 = 0.014249873    lk2 = -2.0467636e-008    wk2 = -1.3670166e-008
+ pk2 = 1.1159673e-015    k3 = 0    k3b = 0    w0 = 2.5e-006
+ dvt0 = 2.8985    dvt1 = 0.23999    dvt2 = -0.016    dvt0w = 0
+ dvt1w = 5300000    dvt2w = -0.032    dsub = 0.3659    minv = -0.1
+ voffl = 0    dvtp0 = 0    dvtp1 = 0    lpe0 = 3.2493e-008
+ lpeb = 0    vbm = -3    xj = 1e-007    ngate = 6e+019
+ ndep = 5.6e+017    nsd = 1e+020    phin = 0    cdsc = 0.00024
+ cdscb = 0    cdscd = 0    cit = 0    voff = -0.097861
+ nfactor = 0.8    eta0 = 0.2541    etab = -0.15284    vfb = 0
+ u0 = 0.0091928468    lu0 = 1.8372909e-009    wu0 = -1.6362577e-010    pu0 = -2.0819854e-016
+ ua = -8.0522078e-011    lua = 7.4813818e-016    wua = 4.3913662e-017    pua = -4.0716945e-023
+ ub = 1.748897e-018    lub = -3.0903909e-025    wub = -5.6568377e-025    pub = 8.7374182e-032
+ uc = 8.6704408e-011    luc = 1.2453182e-017    wuc = -1.3313914e-017    puc = -6.5372036e-024
+ eu = 1.67    vsat = 94000    a0 = 0.66833429    la0 = -1.03128e-007
+ wa0 = 1.9775566e-007    pa0 = -5.5371585e-014    ags = 0.20459958    lags = 6.9689636e-008
+ wags = -3.0388584e-008    pags = 6.2401891e-015    a1 = 0    a2 = 0.99
+ b0 = 0    b1 = 0    keta = -0.10490303    lketa = 2.2143527e-008
+ wketa = 1.2696239e-008    pketa = -3.5549469e-015    dwg = 0    dwb = 0
+ pclm = 0.3781492    lpclm = 2.7248545e-008    wpclm = 1.7891728e-008    ppclm = 2.9199702e-014
+ pdiblc1 = 0.1484    pdiblc2 = 0.00073695    pdiblcb = 0    drout = 0.56
+ pvag = 0    delta = 0.01    pscbe1 = 6.7448e+008    pscbe2 = 1e-005
+ fprout = 0    pdits = 0    pditsd = 0    pditsl = 0
+ rsh = 7    rdsw = 466    rdswmin = 20    prwg = 0
+ prwb = 0    alpha0 = 1.2079775e-005    lalpha0 = -3.0255502e-012    walpha0 = -4.121738e-013
+ palpha0 = 7.4403585e-020    alpha1 = 0    beta0 = 38.238696    lbeta0 = -2.7152909e-006
+ wbeta0 = 1.0082017e-006    pbeta0 = -3.5411055e-013    agidl = 1.5908e-011    bgidl = 1.3902e+009
+ cgidl = 7.5    egidl = 0.1009    cgso = 1.24e-010    cgdo = 1.24e-010
+ cgbo = 1e-013    cgdl = 4e-011    cgsl = 4e-011    clc = 1e-007
+ cle = 0.6    cf = 0    ckappas = 0.6    ckappad = 0.6
+ vfbcv = -1    acde = 1    moin = 15    noff = 2.4
+ voffcv = -0.16    tvoff = 0.0032    ltvoff = 0    wtvoff = 0
+ ptvoff = 0    kt1 = -0.33225761    lkt1 = 5.3309091e-010    wkt1 = 1.4058139e-008
+ pkt1 = -6.6438982e-015    kt1l = 0    kt2 = -0.013066    ute = -1
+ ua1 = 2.0124e-009    lua1 = -2.562e-016    wua1 = -2.66448e-016    pua1 = 1.33224e-022
+ ub1 = -2.8876353e-018    lub1 = -2.9730909e-026    wub1 = 2.6946346e-025    pub1 = -1.8530247e-031
+ uc1 = 6.432e-012    luc1 = -3.4608e-017    wuc1 = -9.4675549e-017    puc1 = 3.4396015e-023
+ prt = 0    at = 12000    fnoimod = 1    tnoimod = 0
+ em = 4.1e+007    ef = 1.12    noia = 3.2e+41    noib = 1.8e+20
+ noic = 3000000000.0    ntnoi = 1    jss = 1.653e-007    jsws = 2.1207e-013
+ jswgs = 0    njs = 1    ijthsfwd = 0.1    ijthsrev = 0.1
+ jtss = 1e-011    jtssws = 1e-011    jtsswgs = 1e-011    njts = 20
+ njtssw = 20    njtsswg = 20    vtss = 10    vtssws = 10
+ vtsswgs = 10    pbs = 0.69939    cjs = 0.00094344    mjs = 0.32084
+ pbsws = 0.8022    cjsws = 1.5078e-010    mjsws = 0.05    pbswgs = 0.65
+ cjswgs = 4.794e-010    mjswgs = 0.21964    tpb = 0.0016906    tcj = 0.00099187
+ tpbsw = 0.0052    tcjsw = 0.00063483    tpbswg = 0.000744    tcjswg = 0.000932
+ xtis = 3    dmcg = 1.5e-007    saref = 4.4e-007    sbref = 4.4e-007
+ kvth0 = 0    ku0 = 0    kvsat = 0
